OPT_V8/My_Campus_24/powerflow_results_t18.txt
Pandapower Network Debug Info
==================================================

BUS:
       vm_pu  va_degree      p_mw    q_mvar
0   0.993081   0.104867  0.000868  0.000802
1   0.988701   0.181808  0.001652  0.002151
2   0.985051   0.254485  0.001809  0.002776
3   0.989251   0.163649  0.002796  0.003690
4   0.988317   0.309558  0.002963  0.005951
5   0.992947   0.136018  0.002814  0.005196
6   0.991318   0.135811  0.001156  0.000897
7   0.997604   0.015413  0.001816  0.001767
8   0.997687   0.052139  0.002013  0.003025
9   0.999892   0.000874  0.008181  0.010083
10  0.999879   0.000919  0.011322  0.009631
11  0.999870   0.000959  0.010675  0.009758
12  0.999761   0.001735  0.011231  0.005860
13  0.999731   0.001990  0.012436  0.011111
14  0.999741   0.001951  0.013732  0.014335
15  0.999933   0.000611  0.000000  0.000000
16  0.999933   0.000617  0.000000  0.000000
17  0.999767   0.001793  0.000000  0.000000
18  0.999767   0.001803  0.000000  0.000000
19  1.000000   0.000000 -0.037441 -0.043982
20  1.000000   0.000006  0.000000  0.000000
21  1.000000   0.000000 -0.048317 -0.053247
22  1.000000   0.000007  0.000000  0.000000
--------------------------------------------------

LINE:
    p_from_mw  q_from_mvar   p_to_mw  q_to_mvar         pl_mw       ql_mvar  i_from_ka   i_to_ka      i_ka  vm_from_pu  va_from_degree  vm_to_pu  va_to_degree  loading_percent
0    0.037431     0.039982 -0.037429  -0.039980  2.934098e-06  2.287764e-06   0.002108  0.002108  0.002108    1.000000        0.000006  0.999933      0.000611         0.916555
1    0.048307     0.049247 -0.048294  -0.049237  1.280041e-05  9.980694e-06   0.002655  0.002655  0.002655    1.000000        0.000007  0.999767      0.001793         1.154428
2    0.030180     0.029473 -0.030178  -0.029472  1.376226e-06  1.073066e-06   0.001624  0.001624  0.001624    0.999933        0.000611  0.999892      0.000874         0.705986
3    0.011231     0.005860 -0.011231  -0.005860  5.552253e-08  4.329183e-08   0.000488  0.000488  0.000488    0.999767        0.001793  0.999761      0.001735         0.212045
4    0.026170     0.025446 -0.026169  -0.025446  7.288656e-07  5.683085e-07   0.001405  0.001405  0.001405    0.999767        0.001793  0.999741      0.001951         0.610988
5    0.007239     0.009507 -0.007172  -0.009455  6.679164e-05  5.207854e-05   0.017248  0.017248  0.017248    0.999933        0.000617  0.993081      0.104867         7.499276
6    0.004014     0.006127 -0.003972  -0.006094  4.164172e-05  3.246873e-05   0.010575  0.010575  0.010575    0.999767        0.001803  0.992947      0.136018         4.597652
7    0.001820     0.001770 -0.001816  -0.001767  4.357499e-06  3.397614e-06   0.003666  0.003666  0.003666    0.999767        0.001803  0.997604      0.015413         1.593761
8    0.005049     0.009034 -0.005031  -0.009019  1.842295e-05  1.436467e-05   0.014941  0.014941  0.014941    0.999767        0.001803  0.997687      0.052139         6.495997
9   -0.021997    -0.019389  0.021997   0.019389  2.974024e-07  2.318896e-07   0.001129  0.001129  0.001129    0.999879        0.000919  0.999892      0.000874         0.490756
10  -0.010675    -0.009758  0.010675   0.009758  1.023257e-07  7.978502e-08   0.000557  0.000557  0.000557    0.999870        0.000959  0.999879      0.000919         0.242063
11   0.012436     0.011111 -0.012436  -0.011111  1.360897e-07  1.061114e-07   0.000642  0.000642  0.000642    0.999741        0.001951  0.999731      0.001990         0.279157
12  -0.003471    -0.004935  0.003493   0.004952  2.202943e-05  1.717671e-05   0.008808  0.008808  0.008808    0.988701        0.181808  0.993081      0.104867         3.829393
13  -0.002796    -0.003690  0.002811   0.003701  1.462441e-05  1.140289e-05   0.006755  0.006755  0.006755    0.989251        0.163649  0.993081      0.104867         2.937007
14  -0.001809    -0.002776  0.001819   0.002784  1.023431e-05  7.979863e-06   0.004855  0.004855  0.004855    0.985051        0.254485  0.988701      0.181808         2.110834
15   0.003018     0.005994 -0.002963  -0.005951  5.504550e-05  4.291988e-05   0.009708  0.009708  0.009708    0.997687        0.052139  0.988317      0.309558         4.220958
16  -0.001156    -0.000897  0.001158   0.000899  1.897229e-06  1.479301e-06   0.002131  0.002131  0.002131    0.991318        0.135811  0.992947      0.136018         0.926396
--------------------------------------------------

TRAFO:
    p_hv_mw  q_hv_mvar   p_lv_mw  q_lv_mvar    pl_mw   ql_mvar   i_hv_ka   i_lv_ka  vm_hv_pu  va_hv_degree  vm_lv_pu  va_lv_degree  loading_percent
0  0.007249   0.010507 -0.007239  -0.009507  0.00001  0.001000  0.000491  0.017248  0.999933      0.000611  0.999933      0.000617         0.127656
1  0.010893   0.017930 -0.010883  -0.016931  0.00001  0.000999  0.000808  0.029057  0.999767      0.001793  0.999767      0.001803         0.209846
2  0.037441   0.043982 -0.037431  -0.039982  0.00001  0.004000  0.000476  0.002108  1.000000      0.000000  1.000000      0.000006         0.144402
3  0.048317   0.053247 -0.048307  -0.049247  0.00001  0.004000  0.000593  0.002655  1.000000      0.000000  1.000000      0.000007         0.179751
--------------------------------------------------
